(|SYSTEM|::|VERSION| '(20060802.))
#0Y |CHARSET|::|UTF-8|
#Y(#:|1 7 (IN-PACKAGE :COMMON-LISP-USER)-1|
   #17Y(00 00 00 00 00 00 00 00 00 01 DA 31 E6 0F 01 19 01)
   ("COMMON-LISP-USER" |COMMON-LISP|::|*PACKAGE*|)
   (|COMMON-LISP|::|T| |COMMON-LISP|::|T| |COMMON-LISP|::|T|))
#Y(#:|10 194 (LET (#) (DECLARE #) ...)-2|
   #23Y(00 00 00 00 00 00 00 00 00 01 DA 2F 01 DA 63 6D 02 01 32 83 C5 19 01)
   (|FORTRAN-TO-LISP|::|DQ7RSH| |SYSTEM|::|REMOVE-OLD-DEFINITIONS|
    #Y(|FORTRAN-TO-LISP|::|DQ7RSH|
       #615Y(00 00 00 00 06 00 00 00 06 00 AE 2F 01 42 02 B1 2F 01 42 02 B1 2F
             01 42 02 DC DC DC DC DC DC DC DD DD DD DD DD DD DD DD DD 66 1C 66
             1C 90 01 32 82 2F 66 1C 81 98 02 66 1C AF 73 02 37 DE 81 B6 01 66
             1C C4 66 1A 71 0A 96 04 DF 73 01 36 73 01 36 38 05 CB FB 66 20 96
             0A DF 73 01 36 71 1D 2D 03 07 BD BD 66 1E DF 73 01 36 73 02 35 82
             01 01 0C 66 1B 81 98 00 AD AF 82 02 35 03 DD AD 66 1E 73 01 36 DF
             73 02 35 DF 72 B6 73 01 33 04 1D FF 1B 81 93 C1 AF DF 73 01 36 73
             02 35 C3 AD BF 33 01 02 16 01 C7 09 0C 09 0A 1B 81 54 A1 09 08 DD
             AE B3 73 01 36 DF 73 02 35 DF 72 B6 73 01 33 A3 09 0A 1B 80 45 B5
             B7 82 02 35 09 DF 66 1B 71 0A B7 DF 73 01 36 73 01 36 38 05 CB FB
             66 21 BD DF 73 01 36 71 1D 66 1C 71 0A 96 0C DF 73 01 36 73 01 36
             38 05 CB FB 66 22 96 12 DF 73 01 36 71 1D BC BC BC 2D 06 09 85 0A
             86 00 AC 8F 92 FF B6 16 01 93 1B 80 EB 1B 80 AF B3 81 98 06 B3 81
             97 05 B2 8F 93 80 40 B2 66 1A 71 0A 96 04 DF 73 01 36 73 01 36 38
             05 CB FB 66 20 96 0A DF 73 01 36 71 1D 66 1B 71 0A DE B4 73 02 35
             DF 73 01 36 73 01 36 38 05 CB FB 66 21 DE BA 73 02 35 DF 73 01 36
             71 1D 2D 03 07 B0 B2 82 02 35 04 AE B4 82 02 35 02 C2 C2 B2 DF 73
             01 36 73 02 35 82 01 01 10 C2 C2 96 06 DF 73 01 36 73 02 35 82 01
             01 0F 14 DC 91 01 2E FE FE C1 AF DF 73 01 36 73 02 35 BD BD BB BB
             BB 2D 05 08 42 06 9F 09 13 9E 09 12 9D 09 11 A2 16 05 F8 C4 AE AE
             33 01 02 16 02 B3 AE 91 01 2D FE E8 93 1B 39 DF 66 1B 71 0A B5 DF
             73 01 36 73 01 36 38 05 CB FB 66 21 BB DF 73 01 36 71 1D 66 1C 71
             0A B4 DF 73 01 36 73 01 36 38 05 CB FB 66 22 BA DF 73 01 36 71 1D
             BB BB BB 2D 06 09 B8 BA 82 02 37 0E BD B4 DF 73 01 36 73 02 35 BA
             BC 73 02 35 C0 AE AE 33 01 02 16 02 BA B7 82 02 37 0D 85 07 86 00
             AC 8F 92 FE ED 16 01 BC 66 1C DF 73 01 36 73 02 35 BE AD BB 33 01
             02 16 01 66 1B 66 19 71 0A 96 03 DF 73 01 36 73 01 36 38 05 CB FB
             66 1F 96 09 DF 73 01 36 71 1D 66 19 2D 03 07 01 06 40 06 19 1D)
       (|COMMON-LISP|::|NIL| |F2CL-LIB|::|FIND-ARRAY-DATA| 0.0d0 0. 2. 1.
        |COMMON-LISP|::|DOUBLE-FLOAT| |FORTRAN-TO-LISP|::|DV7CPY|
        |FORTRAN-TO-LISP|::|DH2RFG| |FORTRAN-TO-LISP|::|DH2RFA|)
       (|COMMON-LISP|::|T| |COMMON-LISP|::|T| |COMMON-LISP|::|T|)
       (|FORTRAN-TO-LISP|::|K| |FORTRAN-TO-LISP|::|P|
        |FORTRAN-TO-LISP|::|HAVQTR| |FORTRAN-TO-LISP|::|QTR|
        |FORTRAN-TO-LISP|::|R| |FORTRAN-TO-LISP|::|W|)
       |COMMON-LISP|::|NIL|))
   (|COMMON-LISP|::|T| |COMMON-LISP|::|T| |COMMON-LISP|::|T|))
